<?xml version="1.0" encoding="UTF-8"?>

<!-- generated on Thu Dec 27 20:24:49 2018 by SUMO netconvert Version 0.32.0
<?xml version="1.0" encoding="UTF-8"?>

<configuration xmlns:xsi="http://www.w3.org/2001/XMLSchema-instance" xsi:noNamespaceSchemaLocation="http://sumo.dlr.de/xsd/netconvertConfiguration.xsd">

    <input>
        <osm-files value="first.osm"/>
    </input>

    <output>
        <output-file value="first.net.xml"/>
    </output>

    <projection>
        <proj.utm value="true"/>
    </projection>

</configuration>
-->

<net version="0.27" xmlns:xsi="http://www.w3.org/2001/XMLSchema-instance" xsi:noNamespaceSchemaLocation="http://sumo.dlr.de/xsd/net_file.xsd">

    <location netOffset="-235631.84,-3340995.04" convBoundary="0.00,0.00,1197.81,1151.67" origBoundary="120.254579,30.171831,120.267009,30.182208" projParameter="+proj=utm +zone=51 +ellps=WGS84 +datum=WGS84 +units=m +no_defs"/>

    <type id="highway.bridleway" priority="1" numLanes="1" speed="2.78" allow="pedestrian" oneway="1" width="2.00"/>
    <type id="highway.bus_guideway" priority="1" numLanes="1" speed="27.78" allow="bus" oneway="1"/>
    <type id="highway.cycleway" priority="1" numLanes="1" speed="8.33" allow="bicycle" oneway="0" width="1.00"/>
    <type id="highway.footway" priority="1" numLanes="1" speed="2.78" allow="pedestrian" oneway="1" width="2.00"/>
    <type id="highway.ford" priority="1" numLanes="1" speed="2.78" allow="army" oneway="0"/>
    <type id="highway.living_street" priority="3" numLanes="1" speed="2.78" disallow="tram rail_urban rail rail_electric ship" oneway="0"/>
    <type id="highway.motorway" priority="13" numLanes="2" speed="44.44" allow="private emergency authority army vip passenger hov taxi bus coach delivery truck trailer motorcycle evehicle custom1 custom2" oneway="1"/>
    <type id="highway.motorway_link" priority="12" numLanes="1" speed="22.22" allow="private emergency authority army vip passenger hov taxi bus coach delivery truck trailer motorcycle evehicle custom1 custom2" oneway="1"/>
    <type id="highway.path" priority="1" numLanes="1" speed="2.78" allow="bicycle pedestrian" oneway="1" width="2.00"/>
    <type id="highway.pedestrian" priority="1" numLanes="1" speed="2.78" allow="pedestrian" oneway="1" width="2.00"/>
    <type id="highway.primary" priority="9" numLanes="2" speed="27.78" disallow="tram rail_urban rail rail_electric ship" oneway="0"/>
    <type id="highway.primary_link" priority="8" numLanes="1" speed="22.22" disallow="tram rail_urban rail rail_electric ship" oneway="0"/>
    <type id="highway.raceway" priority="14" numLanes="2" speed="83.33" allow="vip" oneway="0"/>
    <type id="highway.residential" priority="4" numLanes="1" speed="13.89" disallow="tram rail_urban rail rail_electric ship" oneway="0"/>
    <type id="highway.secondary" priority="7" numLanes="2" speed="27.78" disallow="tram rail_urban rail rail_electric ship" oneway="0"/>
    <type id="highway.secondary_link" priority="6" numLanes="1" speed="22.22" disallow="tram rail_urban rail rail_electric ship" oneway="0"/>
    <type id="highway.service" priority="2" numLanes="1" speed="5.56" allow="delivery bicycle pedestrian" oneway="0"/>
    <type id="highway.stairs" priority="1" numLanes="1" speed="1.39" allow="pedestrian" oneway="1" width="2.00"/>
    <type id="highway.step" priority="1" numLanes="1" speed="1.39" allow="pedestrian" oneway="1" width="2.00"/>
    <type id="highway.steps" priority="1" numLanes="1" speed="1.39" allow="pedestrian" oneway="1" width="2.00"/>
    <type id="highway.tertiary" priority="6" numLanes="1" speed="22.22" disallow="tram rail_urban rail rail_electric ship" oneway="0"/>
    <type id="highway.tertiary_link" priority="5" numLanes="1" speed="22.22" disallow="tram rail_urban rail rail_electric ship" oneway="0"/>
    <type id="highway.track" priority="1" numLanes="1" speed="5.56" disallow="tram rail_urban rail rail_electric ship" oneway="0"/>
    <type id="highway.trunk" priority="11" numLanes="2" speed="27.78" disallow="tram rail_urban rail rail_electric bicycle pedestrian ship" oneway="0"/>
    <type id="highway.trunk_link" priority="10" numLanes="1" speed="22.22" disallow="tram rail_urban rail rail_electric bicycle pedestrian ship" oneway="0"/>
    <type id="highway.unclassified" priority="5" numLanes="1" speed="13.89" disallow="tram rail_urban rail rail_electric ship" oneway="0"/>
    <type id="highway.unsurfaced" priority="1" numLanes="1" speed="8.33" disallow="tram rail_urban rail rail_electric ship" oneway="0"/>
    <type id="railway.light_rail" priority="15" numLanes="1" speed="27.78" allow="rail_urban" oneway="1"/>
    <type id="railway.preserved" priority="15" numLanes="1" speed="27.78" allow="rail" oneway="1"/>
    <type id="railway.rail" priority="15" numLanes="1" speed="83.33" allow="rail rail_electric" oneway="1"/>
    <type id="railway.subway" priority="15" numLanes="1" speed="27.78" allow="rail_urban" oneway="1"/>
    <type id="railway.tram" priority="15" numLanes="1" speed="13.89" allow="tram" oneway="1"/>

    <edge id=":-40169_0" function="internal">
        <lane id=":-40169_0_0" index="0" disallow="tram rail_urban rail rail_electric ship" speed="27.78" length="4.82" shape="0.03,613.20 -1.22,612.40 -1.65,611.58 -1.25,610.75 -0.03,609.90"/>
    </edge>
    <edge id=":-40172_0" function="internal">
        <lane id=":-40172_0_0" index="0" disallow="tram rail_urban rail rail_electric ship" speed="27.78" length="5.80" shape="656.05,609.20 654.50,609.44 653.39,610.13 652.72,611.27 652.49,612.85"/>
    </edge>
    <edge id=":-40172_1" function="internal">
        <lane id=":-40172_1_0" index="0" disallow="tram rail_urban rail rail_electric ship" speed="27.78" length="8.58" shape="656.05,609.20 653.06,609.45 650.92,610.14 649.63,611.26 649.19,612.82"/>
    </edge>
    <edge id=":-40172_2" function="internal">
        <lane id=":-40172_2_0" index="0" disallow="tram rail_urban rail rail_electric ship" speed="27.78" length="36.35" shape="656.05,609.20 619.69,609.49"/>
        <lane id=":-40172_2_1" index="1" disallow="tram rail_urban rail rail_electric ship" speed="27.78" length="36.35" shape="656.02,605.90 619.67,606.19"/>
    </edge>
    <edge id=":-40172_4" function="internal">
        <lane id=":-40172_4_0" index="0" disallow="tram rail_urban rail rail_electric ship" speed="27.78" length="32.31" shape="656.02,605.90 645.85,604.94 638.62,601.84 634.35,596.62 633.01,589.26"/>
    </edge>
    <edge id=":-40172_5" function="internal">
        <lane id=":-40172_5_0" index="0" disallow="tram rail_urban rail rail_electric ship" speed="27.78" length="4.82" shape="656.02,605.90 654.77,605.09 654.35,604.26 654.76,603.44 655.99,602.60"/>
    </edge>
    <edge id=":-40172_6" function="internal">
        <lane id=":-40172_6_0" index="0" disallow="tram rail_urban rail rail_electric ship" speed="27.78" length="5.03" shape="652.81,589.59 652.98,590.96 653.56,591.94 654.53,592.52 655.90,592.70"/>
    </edge>
    <edge id=":-40172_7" function="internal">
        <lane id=":-40172_7_0" index="0" disallow="tram rail_urban rail rail_electric ship" speed="27.78" length="23.33" shape="652.81,589.59 652.49,612.85"/>
        <lane id=":-40172_7_1" index="1" disallow="tram rail_urban rail rail_electric ship" speed="27.78" length="23.33" shape="649.51,589.53 649.19,612.82"/>
        <lane id=":-40172_7_2" index="2" disallow="tram rail_urban rail rail_electric ship" speed="27.78" length="23.33" shape="646.21,589.48 645.89,612.80"/>
        <lane id=":-40172_7_3" index="3" disallow="tram rail_urban rail rail_electric ship" speed="27.78" length="23.33" shape="642.91,589.42 642.59,612.77"/>
        <lane id=":-40172_7_4" index="4" disallow="tram rail_urban rail rail_electric ship" speed="27.78" length="23.33" shape="639.61,589.37 639.29,612.74"/>
        <lane id=":-40172_7_5" index="5" disallow="tram rail_urban rail rail_electric ship" speed="27.78" length="23.33" shape="636.31,589.31 635.99,612.71"/>
    </edge>
    <edge id=":-40172_13" function="internal">
        <lane id=":-40172_13_0" index="0" disallow="tram rail_urban rail rail_electric ship" speed="27.78" length="8.74" shape="636.31,589.31 635.17,596.66 634.49,597.78"/>
    </edge>
    <edge id=":-40172_14" function="internal">
        <lane id=":-40172_14_0" index="0" disallow="tram rail_urban rail rail_electric ship" speed="27.78" length="2.41" shape="636.31,589.31 635.47,590.53 634.64,590.93"/>
    </edge>
    <edge id=":-40172_30" function="internal">
        <lane id=":-40172_30_0" index="0" speed="27.78" length="18.15" shape="634.49,597.78 632.01,601.92 626.85,605.09 619.67,606.19"/>
    </edge>
    <edge id=":-40172_31" function="internal">
        <lane id=":-40172_31_0" index="0" speed="27.78" length="2.41" shape="634.64,590.93 633.82,590.51 633.01,589.26"/>
    </edge>
    <edge id=":-40172_15" function="internal">
        <lane id=":-40172_15_0" index="0" disallow="tram rail_urban rail rail_electric ship" speed="27.78" length="5.96" shape="619.59,592.99 621.11,592.73 622.20,592.00 622.87,590.79 623.11,589.09"/>
    </edge>
    <edge id=":-40172_16" function="internal">
        <lane id=":-40172_16_0" index="0" disallow="tram rail_urban rail rail_electric ship" speed="27.78" length="36.38" shape="619.59,592.99 655.90,592.70"/>
        <lane id=":-40172_16_1" index="1" disallow="tram rail_urban rail rail_electric ship" speed="27.78" length="36.38" shape="619.61,596.29 655.93,596.00"/>
        <lane id=":-40172_16_2" index="2" disallow="tram rail_urban rail rail_electric ship" speed="27.78" length="36.38" shape="619.63,599.59 655.96,599.30"/>
        <lane id=":-40172_16_3" index="3" disallow="tram rail_urban rail rail_electric ship" speed="27.78" length="36.38" shape="619.63,599.59 630.44,600.03 637.81,601.11 645.18,602.18 655.99,602.60"/>
    </edge>
    <edge id=":-40172_20" function="internal">
        <lane id=":-40172_20_0" index="0" disallow="tram rail_urban rail rail_electric ship" speed="27.78" length="26.75" shape="619.63,599.59 628.27,600.36 634.43,602.81 638.10,606.94 639.29,612.74"/>
    </edge>
    <edge id=":-40172_21" function="internal">
        <lane id=":-40172_21_0" index="0" disallow="tram rail_urban rail rail_electric ship" speed="27.78" length="21.42" shape="619.65,602.89 626.83,603.46 631.95,605.29 635.00,608.37 635.99,612.71"/>
    </edge>
    <edge id=":-40172_22" function="internal">
        <lane id=":-40172_22_0" index="0" disallow="tram rail_urban rail rail_electric ship" speed="27.78" length="4.82" shape="619.65,602.89 620.89,603.70 621.31,604.52 620.90,605.35 619.67,606.19"/>
    </edge>
    <edge id=":-40172_23" function="internal">
        <lane id=":-40172_23_0" index="0" disallow="tram rail_urban rail rail_electric ship" speed="27.78" length="5.02" shape="622.79,612.59 622.60,611.22 622.03,610.25 621.06,609.67 619.69,609.49"/>
    </edge>
    <edge id=":-40172_24" function="internal">
        <lane id=":-40172_24_0" index="0" disallow="tram rail_urban rail rail_electric ship" speed="27.78" length="23.46" shape="622.79,612.59 623.11,589.09"/>
        <lane id=":-40172_24_1" index="1" disallow="tram rail_urban rail rail_electric ship" speed="27.78" length="23.46" shape="626.09,612.62 626.41,589.15"/>
        <lane id=":-40172_24_2" index="2" disallow="tram rail_urban rail rail_electric ship" speed="27.78" length="23.46" shape="629.39,612.65 629.71,589.20"/>
        <lane id=":-40172_24_3" index="3" disallow="tram rail_urban rail rail_electric ship" speed="27.78" length="23.46" shape="632.69,612.68 633.01,589.26"/>
    </edge>
    <edge id=":-40172_28" function="internal">
        <lane id=":-40172_28_0" index="0" disallow="tram rail_urban rail rail_electric ship" speed="27.78" length="4.92" shape="632.69,612.68 634.18,608.35 634.45,608.15"/>
    </edge>
    <edge id=":-40172_29" function="internal">
        <lane id=":-40172_29_0" index="0" disallow="tram rail_urban rail rail_electric ship" speed="27.78" length="2.41" shape="632.69,612.68 633.52,611.45 634.35,611.04"/>
    </edge>
    <edge id=":-40172_32" function="internal">
        <lane id=":-40172_32_0" index="0" speed="27.78" length="22.75" shape="634.45,608.15 638.56,605.22 645.83,603.31 655.99,602.60"/>
    </edge>
    <edge id=":-40172_33" function="internal">
        <lane id=":-40172_33_0" index="0" speed="27.78" length="2.41" shape="634.35,611.04 635.17,611.46 635.99,612.71"/>
    </edge>
    <edge id=":-40210_0" function="internal">
        <lane id=":-40210_0_0" index="0" disallow="tram rail_urban rail rail_electric ship" speed="27.78" length="4.82" shape="1197.81,600.14 1199.05,600.97 1199.46,601.80 1199.04,602.62 1197.80,603.44"/>
    </edge>
    <edge id=":-40229_0" function="internal">
        <lane id=":-40229_0_0" index="0" disallow="tram rail_urban rail rail_electric ship" speed="27.78" length="4.82" shape="642.84,-0.03 643.69,-1.25 644.52,-1.65 645.34,-1.22 646.14,0.03"/>
    </edge>
    <edge id=":-40233_0" function="internal">
        <lane id=":-40233_0_0" index="0" disallow="tram rail_urban rail rail_electric ship" speed="27.78" length="4.82" shape="627.34,1151.71 626.48,1152.93 625.65,1153.32 624.83,1152.88 624.04,1151.63"/>
    </edge>

    <edge id="--40171#0" from="-40172" to="-40169" priority="9" type="highway.primary" shape="634.41,604.44 328.11,606.37 0.00,611.55">
        <lane id="--40171#0_0" index="0" disallow="tram rail_urban rail rail_electric ship" speed="27.78" length="619.67" shape="619.69,609.49 328.16,611.32 0.08,616.50"/>
        <lane id="--40171#0_1" index="1" disallow="tram rail_urban rail rail_electric ship" speed="27.78" length="619.67" shape="619.67,606.19 328.13,608.02 0.03,613.20"/>
    </edge>
    <edge id="--40171#1" from="-40210" to="-40172" priority="9" type="highway.primary" shape="1197.81,601.79 995.39,601.21 634.41,604.44">
        <lane id="--40171#1_0" index="0" disallow="tram rail_urban rail rail_electric ship" speed="27.78" length="541.78" shape="1197.79,606.74 995.40,606.16 656.05,609.20"/>
        <lane id="--40171#1_1" index="1" disallow="tram rail_urban rail rail_electric ship" speed="27.78" length="541.78" shape="1197.80,603.44 995.39,602.86 656.02,605.90"/>
    </edge>
    <edge id="--40230#0" from="-40172" to="-40229" priority="9" type="highway.primary">
        <lane id="--40230#0_0" index="0" disallow="tram rail_urban rail rail_electric ship" speed="27.78" length="589.37" shape="623.11,589.09 632.95,-0.19"/>
        <lane id="--40230#0_1" index="1" disallow="tram rail_urban rail rail_electric ship" speed="27.78" length="589.37" shape="626.41,589.15 636.25,-0.14"/>
        <lane id="--40230#0_2" index="2" disallow="tram rail_urban rail rail_electric ship" speed="27.78" length="589.37" shape="629.71,589.20 639.55,-0.08"/>
        <lane id="--40230#0_3" index="3" disallow="tram rail_urban rail rail_electric ship" speed="27.78" length="589.37" shape="633.01,589.26 642.84,-0.03"/>
    </edge>
    <edge id="--40230#1" from="-40233" to="-40172" priority="9" type="highway.primary" shape="625.69,1151.67 631.46,936.54 634.41,604.44">
        <lane id="--40230#1_0" index="0" disallow="tram rail_urban rail rail_electric ship" speed="27.78" length="538.95" shape="614.14,1151.36 619.91,936.33 622.79,612.59"/>
        <lane id="--40230#1_1" index="1" disallow="tram rail_urban rail rail_electric ship" speed="27.78" length="538.95" shape="617.44,1151.45 623.21,936.39 626.09,612.62"/>
        <lane id="--40230#1_2" index="2" disallow="tram rail_urban rail rail_electric ship" speed="27.78" length="538.95" shape="620.74,1151.54 626.51,936.45 629.39,612.65"/>
        <lane id="--40230#1_3" index="3" disallow="tram rail_urban rail rail_electric ship" speed="27.78" length="538.95" shape="624.04,1151.63 629.81,936.51 632.69,612.68"/>
    </edge>
    <edge id="-40171#0" from="-40169" to="-40172" priority="9" type="highway.primary" shape="0.00,611.55 328.11,606.37 634.41,604.44">
        <lane id="-40171#0_0" index="0" disallow="tram rail_urban rail rail_electric ship" speed="27.78" length="619.77" shape="-0.18,600.00 327.98,594.82 619.59,592.99"/>
        <lane id="-40171#0_1" index="1" disallow="tram rail_urban rail rail_electric ship" speed="27.78" length="619.77" shape="-0.13,603.30 328.02,598.12 619.61,596.29"/>
        <lane id="-40171#0_2" index="2" disallow="tram rail_urban rail rail_electric ship" speed="27.78" length="619.77" shape="-0.08,606.60 328.05,601.42 619.63,599.59"/>
        <lane id="-40171#0_3" index="3" disallow="tram rail_urban rail rail_electric ship" speed="27.78" length="619.77" shape="-0.03,609.90 328.09,604.72 619.65,602.89"/>
    </edge>
    <edge id="-40171#1" from="-40172" to="-40210" priority="9" type="highway.primary" shape="634.41,604.44 995.39,601.21 1197.81,601.79">
        <lane id="-40171#1_0" index="0" disallow="tram rail_urban rail rail_electric ship" speed="27.78" length="541.90" shape="655.90,592.70 995.35,589.66 1197.84,590.24"/>
        <lane id="-40171#1_1" index="1" disallow="tram rail_urban rail rail_electric ship" speed="27.78" length="541.90" shape="655.93,596.00 995.36,592.96 1197.83,593.54"/>
        <lane id="-40171#1_2" index="2" disallow="tram rail_urban rail rail_electric ship" speed="27.78" length="541.90" shape="655.96,599.30 995.37,596.26 1197.82,596.84"/>
        <lane id="-40171#1_3" index="3" disallow="tram rail_urban rail rail_electric ship" speed="27.78" length="541.90" shape="655.99,602.60 995.38,599.56 1197.81,600.14"/>
    </edge>
    <edge id="-40230#0" from="-40229" to="-40172" priority="9" type="highway.primary">
        <lane id="-40230#0_0" index="0" disallow="tram rail_urban rail rail_electric ship" speed="27.78" length="589.37" shape="662.64,0.30 652.81,589.59"/>
        <lane id="-40230#0_1" index="1" disallow="tram rail_urban rail rail_electric ship" speed="27.78" length="589.37" shape="659.34,0.25 649.51,589.53"/>
        <lane id="-40230#0_2" index="2" disallow="tram rail_urban rail rail_electric ship" speed="27.78" length="589.37" shape="656.04,0.19 646.21,589.48"/>
        <lane id="-40230#0_3" index="3" disallow="tram rail_urban rail rail_electric ship" speed="27.78" length="589.37" shape="652.74,0.14 642.91,589.42"/>
        <lane id="-40230#0_4" index="4" disallow="tram rail_urban rail rail_electric ship" speed="27.78" length="589.37" shape="649.44,0.08 639.61,589.37"/>
        <lane id="-40230#0_5" index="5" disallow="tram rail_urban rail rail_electric ship" speed="27.78" length="589.37" shape="646.14,0.03 636.31,589.31"/>
    </edge>
    <edge id="-40230#1" from="-40172" to="-40233" priority="9" type="highway.primary" shape="634.41,604.44 631.46,936.54 625.69,1151.67">
        <lane id="-40230#1_0" index="0" disallow="tram rail_urban rail rail_electric ship" speed="27.78" length="539.24" shape="652.49,612.85 649.60,936.86 643.83,1152.16"/>
        <lane id="-40230#1_1" index="1" disallow="tram rail_urban rail rail_electric ship" speed="27.78" length="539.24" shape="649.19,612.82 646.30,936.80 640.53,1152.07"/>
        <lane id="-40230#1_2" index="2" disallow="tram rail_urban rail rail_electric ship" speed="27.78" length="539.24" shape="645.89,612.80 643.00,936.74 637.24,1151.98"/>
        <lane id="-40230#1_3" index="3" disallow="tram rail_urban rail rail_electric ship" speed="27.78" length="539.24" shape="642.59,612.77 639.70,936.68 633.94,1151.89"/>
        <lane id="-40230#1_4" index="4" disallow="tram rail_urban rail rail_electric ship" speed="27.78" length="539.24" shape="639.29,612.74 636.40,936.63 630.64,1151.80"/>
        <lane id="-40230#1_5" index="5" disallow="tram rail_urban rail rail_electric ship" speed="27.78" length="539.24" shape="635.99,612.71 633.11,936.57 627.34,1151.71"/>
    </edge>

    <junction id="-40169" type="priority" x="0.00" y="611.55" incLanes="--40171#0_0 --40171#0_1" intLanes=":-40169_0_0" shape="-0.00,611.50 0.10,618.10 0.00,611.60">
        <request index="0" response="0" foes="0" cont="0"/>
    </junction>
    <junction id="-40172" type="priority" x="634.41" y="604.44" incLanes="--40171#1_0 --40171#1_1 -40230#0_0 -40230#0_1 -40230#0_2 -40230#0_3 -40230#0_4 -40230#0_5 -40171#0_0 -40171#0_1 -40171#0_2 -40171#0_3 --40230#1_0 --40230#1_1 --40230#1_2 --40230#1_3" intLanes=":-40172_0_0 :-40172_1_0 :-40172_2_0 :-40172_2_1 :-40172_4_0 :-40172_5_0 :-40172_6_0 :-40172_7_0 :-40172_7_1 :-40172_7_2 :-40172_7_3 :-40172_7_4 :-40172_7_5 :-40172_30_0 :-40172_31_0 :-40172_15_0 :-40172_16_0 :-40172_16_1 :-40172_16_2 :-40172_16_3 :-40172_20_0 :-40172_21_0 :-40172_22_0 :-40172_23_0 :-40172_24_0 :-40172_24_1 :-40172_24_2 :-40172_24_3 :-40172_32_0 :-40172_33_0" shape="656.06,610.80 655.88,591.10 654.41,589.61 621.51,589.06 619.58,591.39 619.70,611.09 621.19,612.58 654.09,612.87">
        <request index="0" response="000000000000000001111110000000" foes="100000001100000001111110000000" cont="0"/>
        <request index="1" response="000000000000000001111110000000" foes="100000001100000001111110000000" cont="0"/>
        <request index="2" response="011111100000000011111110000000" foes="011111111100000011111110000000" cont="0"/>
        <request index="3" response="011111100000000011111110000000" foes="011111111100000011111110000000" cont="0"/>
        <request index="4" response="011111000011111011111110000000" foes="011111000011111111111110000000" cont="0"/>
        <request index="5" response="010000000011110000000001000000" foes="010000000011110000000001000000" cont="0"/>
        <request index="6" response="000000000000000000000000000000" foes="010000000011110000000000100000" cont="0"/>
        <request index="7" response="000000000000000000000000000000" foes="110000001111110000000000011111" cont="0"/>
        <request index="8" response="000000000000000000000000000000" foes="110000001111110000000000011111" cont="0"/>
        <request index="9" response="000000000000000000000000000000" foes="110000001111110000000000011111" cont="0"/>
        <request index="10" response="000000000000000000000000000000" foes="110000001111110000000000011111" cont="0"/>
        <request index="11" response="000000000000000000000000000000" foes="110000001111110000000000011111" cont="0"/>
        <request index="12" response="000000000000000000000000000000" foes="110000001111110000000000011111" cont="0"/>
        <request index="13" response="001111100000000000000000000000" foes="001111111111110000000000011100" cont="1"/>
        <request index="14" response="001111000000001000000000010000" foes="001111000000001000000000010000" cont="1"/>
        <request index="15" response="001111000000000000000000000000" foes="001111000000000100000000010000" cont="0"/>
        <request index="16" response="011111000000000011111111000000" foes="011111000000000011111111110000" cont="0"/>
        <request index="17" response="011111000000000011111111000000" foes="011111000000000011111111110000" cont="0"/>
        <request index="18" response="011111000000000011111111000000" foes="011111000000000011111111110000" cont="0"/>
        <request index="19" response="011111000000000011111111000000" foes="011111000000000011111111110000" cont="0"/>
        <request index="20" response="011111000000000011111110001111" foes="111111000000000011111110001111" cont="0"/>
        <request index="21" response="011111000000000011111110001111" foes="111111000000000011111110001111" cont="0"/>
        <request index="22" response="000000100000000010000000001100" foes="000000100000000010000000001100" cont="0"/>
        <request index="23" response="000000000000000000000000000000" foes="000000010000000010000000001100" cont="0"/>
        <request index="24" response="000000000000000000000000000000" foes="000000001111111110000000011100" cont="0"/>
        <request index="25" response="000000000000000000000000000000" foes="000000001111111110000000011100" cont="0"/>
        <request index="26" response="000000000000000000000000000000" foes="000000001111111110000000011100" cont="0"/>
        <request index="27" response="000000000000000000000000000000" foes="000000001111111110000000011100" cont="0"/>
        <request index="28" response="000000000000000001111111000000" foes="000000001111110001111111111100" cont="1"/>
        <request index="29" response="000000001100000001111110000011" foes="000000001100000001111110000011" cont="1"/>
    </junction>
    <junction id="-40210" type="priority" x="1197.81" y="601.79" incLanes="-40171#1_0 -40171#1_1 -40171#1_2 -40171#1_3" intLanes=":-40210_0_0" shape="1197.81,601.84 1197.85,588.64 1197.81,601.74">
        <request index="0" response="0" foes="0" cont="0"/>
    </junction>
    <junction id="-40229" type="priority" x="644.49" y="0.00" incLanes="--40230#0_0 --40230#0_1 --40230#0_2 --40230#0_3" intLanes=":-40229_0_0" shape="644.54,0.00 631.35,-0.22 644.44,-0.00">
        <request index="0" response="0" foes="0" cont="0"/>
    </junction>
    <junction id="-40233" type="priority" x="625.69" y="1151.67" incLanes="-40230#1_0 -40230#1_1 -40230#1_2 -40230#1_3 -40230#1_4 -40230#1_5" intLanes=":-40233_0_0" shape="625.64,1151.67 645.43,1152.20 625.74,1151.67">
        <request index="0" response="0" foes="0" cont="0"/>
    </junction>

    <junction id=":-40172_30_0" type="internal" x="634.49" y="597.78" incLanes=":-40172_13_0 --40230#1_0 --40230#1_1 --40230#1_2 --40230#1_3" intLanes=":-40172_2_0 :-40172_2_1 :-40172_4_0 :-40172_16_0 :-40172_16_1 :-40172_16_2 :-40172_16_3 :-40172_20_0 :-40172_21_0 :-40172_22_0 :-40172_23_0 :-40172_24_0 :-40172_24_1 :-40172_24_2 :-40172_24_3"/>
    <junction id=":-40172_31_0" type="internal" x="634.64" y="590.93" incLanes=":-40172_14_0 --40171#1_1 --40230#1_0 --40230#1_1 --40230#1_2 --40230#1_3 -40171#0_0" intLanes=":-40172_4_0 :-40172_15_0 :-40172_24_0 :-40172_24_1 :-40172_24_2 :-40172_24_3"/>
    <junction id=":-40172_32_0" type="internal" x="634.45" y="608.15" incLanes=":-40172_28_0 -40230#0_0 -40230#0_1 -40230#0_2 -40230#0_3 -40230#0_4 -40230#0_5" intLanes=":-40172_2_0 :-40172_2_1 :-40172_4_0 :-40172_5_0 :-40172_6_0 :-40172_7_0 :-40172_7_1 :-40172_7_2 :-40172_7_3 :-40172_7_4 :-40172_7_5 :-40172_16_0 :-40172_16_1 :-40172_16_2 :-40172_16_3 :-40172_20_0 :-40172_21_0"/>
    <junction id=":-40172_33_0" type="internal" x="634.35" y="611.04" incLanes=":-40172_29_0 --40171#1_0 -40171#0_2 -40171#0_3 -40230#0_0 -40230#0_1 -40230#0_2 -40230#0_3 -40230#0_4 -40230#0_5" intLanes=":-40172_0_0 :-40172_1_0 :-40172_7_0 :-40172_7_1 :-40172_7_2 :-40172_7_3 :-40172_7_4 :-40172_7_5 :-40172_20_0 :-40172_21_0"/>

    <connection from="--40171#0" to="-40171#0" fromLane="1" toLane="3" via=":-40169_0_0" dir="t" state="M"/>
    <connection from="--40171#1" to="-40230#1" fromLane="0" toLane="0" via=":-40172_0_0" dir="r" state="m"/>
    <connection from="--40171#1" to="-40230#1" fromLane="0" toLane="1" via=":-40172_1_0" dir="r" state="m"/>
    <connection from="--40171#1" to="--40171#0" fromLane="0" toLane="0" via=":-40172_2_0" dir="s" state="m"/>
    <connection from="--40171#1" to="--40171#0" fromLane="1" toLane="1" via=":-40172_2_1" dir="s" state="m"/>
    <connection from="--40171#1" to="--40230#0" fromLane="1" toLane="3" via=":-40172_4_0" dir="l" state="m"/>
    <connection from="--40171#1" to="-40171#1" fromLane="1" toLane="3" via=":-40172_5_0" dir="t" state="m"/>
    <connection from="--40230#0" to="-40230#0" fromLane="3" toLane="5" via=":-40229_0_0" dir="t" state="M"/>
    <connection from="--40230#1" to="--40171#0" fromLane="0" toLane="0" via=":-40172_23_0" dir="r" state="M"/>
    <connection from="--40230#1" to="--40230#0" fromLane="0" toLane="0" via=":-40172_24_0" dir="s" state="M"/>
    <connection from="--40230#1" to="--40230#0" fromLane="1" toLane="1" via=":-40172_24_1" dir="s" state="M"/>
    <connection from="--40230#1" to="--40230#0" fromLane="2" toLane="2" via=":-40172_24_2" dir="s" state="M"/>
    <connection from="--40230#1" to="--40230#0" fromLane="3" toLane="3" via=":-40172_24_3" dir="s" state="M"/>
    <connection from="--40230#1" to="-40171#1" fromLane="3" toLane="3" via=":-40172_28_0" dir="l" state="m"/>
    <connection from="--40230#1" to="-40230#1" fromLane="3" toLane="5" via=":-40172_29_0" dir="t" state="m"/>
    <connection from="-40171#0" to="--40230#0" fromLane="0" toLane="0" via=":-40172_15_0" dir="r" state="m"/>
    <connection from="-40171#0" to="-40171#1" fromLane="0" toLane="0" via=":-40172_16_0" dir="s" state="m"/>
    <connection from="-40171#0" to="-40171#1" fromLane="1" toLane="1" via=":-40172_16_1" dir="s" state="m"/>
    <connection from="-40171#0" to="-40171#1" fromLane="2" toLane="2" via=":-40172_16_2" dir="s" state="m"/>
    <connection from="-40171#0" to="-40171#1" fromLane="2" toLane="3" via=":-40172_16_3" dir="s" state="m"/>
    <connection from="-40171#0" to="-40230#1" fromLane="2" toLane="4" via=":-40172_20_0" dir="l" state="m"/>
    <connection from="-40171#0" to="-40230#1" fromLane="3" toLane="5" via=":-40172_21_0" dir="l" state="m"/>
    <connection from="-40171#0" to="--40171#0" fromLane="3" toLane="1" via=":-40172_22_0" dir="t" state="m"/>
    <connection from="-40171#1" to="--40171#1" fromLane="3" toLane="1" via=":-40210_0_0" dir="t" state="M"/>
    <connection from="-40230#0" to="-40171#1" fromLane="0" toLane="0" via=":-40172_6_0" dir="r" state="M"/>
    <connection from="-40230#0" to="-40230#1" fromLane="0" toLane="0" via=":-40172_7_0" dir="s" state="M"/>
    <connection from="-40230#0" to="-40230#1" fromLane="1" toLane="1" via=":-40172_7_1" dir="s" state="M"/>
    <connection from="-40230#0" to="-40230#1" fromLane="2" toLane="2" via=":-40172_7_2" dir="s" state="M"/>
    <connection from="-40230#0" to="-40230#1" fromLane="3" toLane="3" via=":-40172_7_3" dir="s" state="M"/>
    <connection from="-40230#0" to="-40230#1" fromLane="4" toLane="4" via=":-40172_7_4" dir="s" state="M"/>
    <connection from="-40230#0" to="-40230#1" fromLane="5" toLane="5" via=":-40172_7_5" dir="s" state="M"/>
    <connection from="-40230#0" to="--40171#0" fromLane="5" toLane="1" via=":-40172_13_0" dir="l" state="m"/>