<?xml version="1.0" encoding="UTF-8"?>

<!-- generated on Thu Dec 27 20:10:47 2018 by SUMO netconvert Version 0.32.0
<?xml version="1.0" encoding="UTF-8"?>

<configuration xmlns:xsi="http://www.w3.org/2001/XMLSchema-instance" xsi:noNamespaceSchemaLocation="http://sumo.dlr.de/xsd/netconvertConfiguration.xsd">

    <input>
        <osm-files value="hello.osm"/>
    </input>

    <output>
        <output-file value="hello.net.xml"/>
    </output>

    <projection>
        <proj.utm value="true"/>
    </projection>

</configuration>
-->

<net version="0.27" xmlns:xsi="http://www.w3.org/2001/XMLSchema-instance" xsi:noNamespaceSchemaLocation="http://sumo.dlr.de/xsd/net_file.xsd">

    <location netOffset="-235826.93,-3340765.39" convBoundary="0.00,0.00,1203.83,1107.97" origBoundary="120.256679,30.169794,120.269166,30.179773" projParameter="+proj=utm +zone=51 +ellps=WGS84 +datum=WGS84 +units=m +no_defs"/>

    <type id="highway.bridleway" priority="1" numLanes="1" speed="2.78" allow="pedestrian" oneway="1" width="2.00"/>
    <type id="highway.bus_guideway" priority="1" numLanes="1" speed="27.78" allow="bus" oneway="1"/>
    <type id="highway.cycleway" priority="1" numLanes="1" speed="8.33" allow="bicycle" oneway="0" width="1.00"/>
    <type id="highway.footway" priority="1" numLanes="1" speed="2.78" allow="pedestrian" oneway="1" width="2.00"/>
    <type id="highway.ford" priority="1" numLanes="1" speed="2.78" allow="army" oneway="0"/>
    <type id="highway.living_street" priority="3" numLanes="1" speed="2.78" disallow="tram rail_urban rail rail_electric ship" oneway="0"/>
    <type id="highway.motorway" priority="13" numLanes="2" speed="44.44" allow="private emergency authority army vip passenger hov taxi bus coach delivery truck trailer motorcycle evehicle custom1 custom2" oneway="1"/>
    <type id="highway.motorway_link" priority="12" numLanes="1" speed="22.22" allow="private emergency authority army vip passenger hov taxi bus coach delivery truck trailer motorcycle evehicle custom1 custom2" oneway="1"/>
    <type id="highway.path" priority="1" numLanes="1" speed="2.78" allow="bicycle pedestrian" oneway="1" width="2.00"/>
    <type id="highway.pedestrian" priority="1" numLanes="1" speed="2.78" allow="pedestrian" oneway="1" width="2.00"/>
    <type id="highway.primary" priority="9" numLanes="2" speed="27.78" disallow="tram rail_urban rail rail_electric ship" oneway="0"/>
    <type id="highway.primary_link" priority="8" numLanes="1" speed="22.22" disallow="tram rail_urban rail rail_electric ship" oneway="0"/>
    <type id="highway.raceway" priority="14" numLanes="2" speed="83.33" allow="vip" oneway="0"/>
    <type id="highway.residential" priority="4" numLanes="1" speed="13.89" disallow="tram rail_urban rail rail_electric ship" oneway="0"/>
    <type id="highway.secondary" priority="7" numLanes="2" speed="27.78" disallow="tram rail_urban rail rail_electric ship" oneway="0"/>
    <type id="highway.secondary_link" priority="6" numLanes="1" speed="22.22" disallow="tram rail_urban rail rail_electric ship" oneway="0"/>
    <type id="highway.service" priority="2" numLanes="1" speed="5.56" allow="delivery bicycle pedestrian" oneway="0"/>
    <type id="highway.stairs" priority="1" numLanes="1" speed="1.39" allow="pedestrian" oneway="1" width="2.00"/>
    <type id="highway.step" priority="1" numLanes="1" speed="1.39" allow="pedestrian" oneway="1" width="2.00"/>
    <type id="highway.steps" priority="1" numLanes="1" speed="1.39" allow="pedestrian" oneway="1" width="2.00"/>
    <type id="highway.tertiary" priority="6" numLanes="1" speed="22.22" disallow="tram rail_urban rail rail_electric ship" oneway="0"/>
    <type id="highway.tertiary_link" priority="5" numLanes="1" speed="22.22" disallow="tram rail_urban rail rail_electric ship" oneway="0"/>
    <type id="highway.track" priority="1" numLanes="1" speed="5.56" disallow="tram rail_urban rail rail_electric ship" oneway="0"/>
    <type id="highway.trunk" priority="11" numLanes="2" speed="27.78" disallow="tram rail_urban rail rail_electric bicycle pedestrian ship" oneway="0"/>
    <type id="highway.trunk_link" priority="10" numLanes="1" speed="22.22" disallow="tram rail_urban rail rail_electric bicycle pedestrian ship" oneway="0"/>
    <type id="highway.unclassified" priority="5" numLanes="1" speed="13.89" disallow="tram rail_urban rail rail_electric ship" oneway="0"/>
    <type id="highway.unsurfaced" priority="1" numLanes="1" speed="8.33" disallow="tram rail_urban rail rail_electric ship" oneway="0"/>
    <type id="railway.light_rail" priority="15" numLanes="1" speed="27.78" allow="rail_urban" oneway="1"/>
    <type id="railway.preserved" priority="15" numLanes="1" speed="27.78" allow="rail" oneway="1"/>
    <type id="railway.rail" priority="15" numLanes="1" speed="83.33" allow="rail rail_electric" oneway="1"/>
    <type id="railway.subway" priority="15" numLanes="1" speed="27.78" allow="rail_urban" oneway="1"/>
    <type id="railway.tram" priority="15" numLanes="1" speed="13.89" allow="tram" oneway="1"/>

    <edge id=":-39909_0" function="internal">
        <lane id=":-39909_0_0" index="0" disallow="tram rail_urban rail rail_electric ship" speed="27.78" length="0.33" shape="571.61,1067.73 571.61,1068.08"/>
        <lane id=":-39909_0_1" index="1" disallow="tram rail_urban rail rail_electric ship" speed="27.78" length="0.33" shape="568.31,1067.68 568.31,1067.99"/>
    </edge>
    <edge id=":-39909_2" function="internal">
        <lane id=":-39909_2_0" index="0" disallow="tram rail_urban rail rail_electric ship" speed="27.78" length="2.41" shape="568.31,1067.68 567.47,1068.91 566.64,1069.30"/>
    </edge>
    <edge id=":-39909_6" function="internal">
        <lane id=":-39909_6_0" index="0" speed="27.78" length="2.41" shape="566.64,1069.30 565.82,1068.88 565.01,1067.63"/>
    </edge>
    <edge id=":-39909_3" function="internal">
        <lane id=":-39909_3_0" index="0" disallow="tram rail_urban rail rail_electric ship" speed="27.78" length="0.26" shape="561.71,1067.81 561.71,1067.57"/>
        <lane id=":-39909_3_1" index="1" disallow="tram rail_urban rail rail_electric ship" speed="27.78" length="0.26" shape="565.01,1067.90 565.01,1067.63"/>
    </edge>
    <edge id=":-39909_5" function="internal">
        <lane id=":-39909_5_0" index="0" disallow="tram rail_urban rail rail_electric ship" speed="27.78" length="2.41" shape="565.01,1067.90 565.87,1066.69 566.70,1066.30"/>
    </edge>
    <edge id=":-39909_7" function="internal">
        <lane id=":-39909_7_0" index="0" speed="27.78" length="2.41" shape="566.70,1066.30 567.52,1066.73 568.31,1067.99"/>
    </edge>
    <edge id=":-39923_0" function="internal">
        <lane id=":-39923_0_0" index="0" disallow="tram rail_urban rail rail_electric ship" speed="27.78" length="4.82" shape="583.13,0.43 584.00,-0.77 584.84,-1.16 585.65,-0.71 586.43,0.55"/>
    </edge>
    <edge id=":-39926_0" function="internal">
        <lane id=":-39926_0_0" index="0" disallow="tram rail_urban rail rail_electric ship" speed="27.78" length="4.82" shape="603.63,-0.05 604.50,-1.26 605.33,-1.65 606.14,-1.21 606.93,0.05"/>
    </edge>
    <edge id=":-39945_0" function="internal">
        <lane id=":-39945_0_0" index="0" disallow="tram rail_urban rail rail_electric ship" speed="27.78" length="4.82" shape="567.23,1108.01 566.37,1109.23 565.53,1109.62 564.72,1109.18 563.93,1107.93"/>
    </edge>
    <edge id=":-39947_0" function="internal">
        <lane id=":-39947_0_0" index="0" disallow="tram rail_urban rail rail_electric ship" speed="27.78" length="4.82" shape="581.56,1107.01 580.69,1108.21 579.85,1108.59 579.04,1108.15 578.26,1106.88"/>
    </edge>
    <edge id=":-40054_0" function="internal">
        <lane id=":-40054_0_0" index="0" disallow="tram rail_urban rail rail_electric ship" speed="27.78" length="4.82" shape="-0.02,538.78 -1.25,537.93 -1.65,537.10 -1.23,536.28 0.02,535.48"/>
    </edge>
    <edge id=":-40091_0" function="internal">
        <lane id=":-40091_0_0" index="0" disallow="tram rail_urban rail rail_electric ship" speed="27.78" length="4.82" shape="1203.87,547.37 1205.09,548.22 1205.48,549.06 1205.05,549.87 1203.79,550.67"/>
    </edge>
    <edge id=":-40094_0" function="internal">
        <lane id=":-40094_0_0" index="0" disallow="tram rail_urban rail rail_electric ship" speed="27.78" length="4.82" shape="1201.96,582.80 1203.19,583.64 1203.59,584.47 1203.17,585.29 1201.92,586.10"/>
    </edge>
    <edge id=":-40105_0" function="internal">
        <lane id=":-40105_0_0" index="0" disallow="tram rail_urban rail rail_electric ship" speed="27.78" length="4.82" shape="3.44,568.63 2.21,567.79 1.80,566.96 2.23,566.14 3.47,565.33"/>
    </edge>

    <edge id="--39911" from="-39923" to="-39909" priority="9" type="highway.primary" shape="584.78,0.49 582.28,67.24 577.02,246.99 574.50,426.68 573.40,494.75 572.28,675.77 570.51,829.58 566.66,1067.80">
        <lane id="--39911_0" index="0" disallow="tram rail_urban rail rail_electric ship" speed="27.78" length="1067.29" shape="589.72,0.68 587.22,67.40 581.97,247.10 579.45,426.76 578.35,494.81 577.23,675.81 575.46,829.65 571.61,1067.73"/>
        <lane id="--39911_1" index="1" disallow="tram rail_urban rail rail_electric ship" speed="27.78" length="1067.29" shape="586.43,0.55 583.93,67.29 578.67,247.03 576.15,426.71 575.05,494.77 573.93,675.78 572.16,829.60 568.31,1067.68"/>
    </edge>
    <edge id="--39928" from="-39947" to="-39926" priority="9" type="highway.primary" shape="579.91,1106.94 581.58,1062.68 586.20,913.57 589.59,656.30 594.10,445.27 596.20,362.20 599.18,201.55 602.94,73.54 605.28,0.00">
        <lane id="--39928_0" index="0" disallow="tram rail_urban rail rail_electric ship" speed="27.78" length="1107.25" shape="574.96,1106.76 576.64,1062.51 581.25,913.46 584.64,656.21 589.15,445.15 591.25,362.10 594.23,201.44 598.00,73.39 600.33,-0.16"/>
        <lane id="--39928_1" index="1" disallow="tram rail_urban rail rail_electric ship" speed="27.78" length="1107.25" shape="578.26,1106.88 579.93,1062.62 584.55,913.53 587.94,656.27 592.45,445.23 594.55,362.17 597.53,201.51 601.30,73.49 603.63,-0.05"/>
    </edge>
    <edge id="--39946" from="-39909" to="-39945" priority="9" type="highway.primary">
        <lane id="--39946_0" index="0" disallow="tram rail_urban rail rail_electric ship" speed="27.78" length="40.04" shape="571.61,1068.08 570.52,1108.10"/>
        <lane id="--39946_1" index="1" disallow="tram rail_urban rail rail_electric ship" speed="27.78" length="40.04" shape="568.31,1067.99 567.23,1108.01"/>
    </edge>
    <edge id="--40056" from="-40091" to="-40054" priority="9" type="highway.primary" shape="1203.83,549.02 1146.35,547.68 1064.28,546.93 774.37,548.44 528.14,546.19 358.45,542.11 0.00,537.13">
        <lane id="--40056_0" index="0" disallow="tram rail_urban rail rail_electric ship" speed="27.78" length="1203.91" shape="1203.71,553.97 1146.27,552.63 1064.27,551.88 774.36,553.39 528.06,551.14 358.35,547.06 -0.07,542.08"/>
        <lane id="--40056_1" index="1" disallow="tram rail_urban rail rail_electric ship" speed="27.78" length="1203.91" shape="1203.79,550.67 1146.33,549.33 1064.27,548.58 774.37,550.09 528.11,547.84 358.42,543.76 -0.02,538.78"/>
    </edge>
    <edge id="--40096" from="-40105" to="-40094" priority="9" type="highway.primary" shape="3.45,566.98 162.14,568.60 337.30,572.55 542.53,575.78 714.88,577.09 906.44,580.65 1201.94,584.45">
        <lane id="--40096_0" index="0" disallow="tram rail_urban rail rail_electric ship" speed="27.78" length="1198.64" shape="3.50,562.03 162.22,563.65 337.39,567.60 542.58,570.83 714.95,572.14 906.52,575.70 1202.01,579.50"/>
        <lane id="--40096_1" index="1" disallow="tram rail_urban rail rail_electric ship" speed="27.78" length="1198.64" shape="3.47,565.33 162.17,566.95 337.33,570.90 542.54,574.13 714.90,575.44 906.46,579.00 1201.96,582.80"/>
    </edge>
    <edge id="-39911" from="-39909" to="-39923" priority="9" type="highway.primary" shape="566.66,1067.80 570.51,829.58 572.28,675.77 573.40,494.75 574.50,426.68 577.02,246.99 582.28,67.24 584.78,0.49">
        <lane id="-39911_0" index="0" disallow="tram rail_urban rail rail_electric ship" speed="27.78" length="1067.43" shape="561.71,1067.57 565.56,829.51 567.33,675.72 568.45,494.70 569.55,426.61 572.07,246.89 577.33,67.07 579.83,0.31"/>
        <lane id="-39911_1" index="1" disallow="tram rail_urban rail rail_electric ship" speed="27.78" length="1067.43" shape="565.01,1067.63 568.86,829.55 570.63,675.75 571.75,494.73 572.85,426.66 575.37,246.96 580.63,67.18 583.13,0.43"/>
    </edge>
    <edge id="-39928" from="-39926" to="-39947" priority="9" type="highway.primary" shape="605.28,0.00 602.94,73.54 599.18,201.55 596.20,362.20 594.10,445.27 589.59,656.30 586.20,913.57 581.58,1062.68 579.91,1106.94">
        <lane id="-39928_0" index="0" disallow="tram rail_urban rail rail_electric ship" speed="27.78" length="1107.28" shape="610.23,0.16 607.89,73.69 604.13,201.67 601.15,362.31 599.05,445.38 594.54,656.38 591.15,913.68 586.53,1062.85 584.86,1107.13"/>
        <lane id="-39928_1" index="1" disallow="tram rail_urban rail rail_electric ship" speed="27.78" length="1107.28" shape="606.93,0.05 604.59,73.59 600.83,201.59 597.85,362.24 595.75,445.30 591.24,656.33 587.85,913.60 583.23,1062.74 581.56,1107.01"/>
    </edge>
    <edge id="-39946" from="-39945" to="-39909" priority="9" type="highway.primary">
        <lane id="-39946_0" index="0" disallow="tram rail_urban rail rail_electric ship" speed="27.78" length="40.04" shape="560.63,1107.84 561.71,1067.81"/>
        <lane id="-39946_1" index="1" disallow="tram rail_urban rail rail_electric ship" speed="27.78" length="40.04" shape="563.93,1107.93 565.01,1067.90"/>
    </edge>
    <edge id="-40056" from="-40054" to="-40091" priority="9" type="highway.primary" shape="0.00,537.13 358.45,542.11 528.14,546.19 774.37,548.44 1064.28,546.93 1146.35,547.68 1203.83,549.02">
        <lane id="-40056_0" index="0" disallow="tram rail_urban rail rail_electric ship" speed="27.78" length="1203.98" shape="0.07,532.18 358.54,537.16 528.22,541.24 774.38,543.49 1064.29,541.98 1146.43,542.73 1203.94,544.07"/>
        <lane id="-40056_1" index="1" disallow="tram rail_urban rail rail_electric ship" speed="27.78" length="1203.98" shape="0.02,535.48 358.48,540.46 528.16,544.54 774.37,546.79 1064.28,545.28 1146.38,546.03 1203.87,547.37"/>
    </edge>
    <edge id="-40096" from="-40094" to="-40105" priority="9" type="highway.primary" shape="1201.94,584.45 906.44,580.65 714.88,577.09 542.53,575.78 337.30,572.55 162.14,568.60 3.45,566.98">
        <lane id="-40096_0" index="0" disallow="tram rail_urban rail rail_electric ship" speed="27.78" length="1198.62" shape="1201.88,589.40 906.36,585.60 714.82,582.03 542.47,580.73 337.20,577.50 162.06,573.55 3.40,571.93"/>
        <lane id="-40096_1" index="1" disallow="tram rail_urban rail rail_electric ship" speed="27.78" length="1198.62" shape="1201.92,586.10 906.41,582.30 714.86,578.74 542.51,577.43 337.27,574.20 162.12,570.25 3.44,568.63"/>
    </edge>

    <junction id="-39909" type="priority" x="566.66" y="1067.80" incLanes="--39911_0 --39911_1 -39946_0 -39946_1" intLanes=":-39909_0_0 :-39909_0_1 :-39909_6_0 :-39909_3_0 :-39909_3_1 :-39909_7_0" shape="573.21,1067.76 560.11,1067.55 560.11,1067.77 573.21,1068.13">
        <request index="0" response="000000" foes="100000" cont="0"/>
        <request index="1" response="000000" foes="100000" cont="0"/>
        <request index="2" response="011000" foes="011000" cont="1"/>
        <request index="3" response="000000" foes="000100" cont="0"/>
        <request index="4" response="000000" foes="000100" cont="0"/>
        <request index="5" response="000011" foes="000011" cont="1"/>
    </junction>
    <junction id="-39923" type="priority" x="584.78" y="0.49" incLanes="-39911_0 -39911_1" intLanes=":-39923_0_0" shape="584.83,0.49 578.23,0.25 584.73,0.49">
        <request index="0" response="0" foes="0" cont="0"/>
    </junction>
    <junction id="-39926" type="priority" x="605.28" y="0.00" incLanes="--39928_0 --39928_1" intLanes=":-39926_0_0" shape="605.33,0.00 598.73,-0.21 605.23,-0.00">
        <request index="0" response="0" foes="0" cont="0"/>
    </junction>
    <junction id="-39945" type="priority" x="565.58" y="1107.97" incLanes="--39946_0 --39946_1" intLanes=":-39945_0_0" shape="565.53,1107.97 572.12,1108.15 565.63,1107.97">
        <request index="0" response="0" foes="0" cont="0"/>
    </junction>
    <junction id="-39947" type="priority" x="579.91" y="1106.94" incLanes="-39928_0 -39928_1" intLanes=":-39947_0_0" shape="579.86,1106.94 586.46,1107.19 579.96,1106.95">
        <request index="0" response="0" foes="0" cont="0"/>
    </junction>
    <junction id="-40054" type="priority" x="0.00" y="537.13" incLanes="--40056_0 --40056_1" intLanes=":-40054_0_0" shape="0.00,537.08 -0.09,543.68 -0.00,537.18">
        <request index="0" response="0" foes="0" cont="0"/>
    </junction>
    <junction id="-40091" type="priority" x="1203.83" y="549.02" incLanes="-40056_0 -40056_1" intLanes=":-40091_0_0" shape="1203.83,549.07 1203.98,542.47 1203.83,548.97">
        <request index="0" response="0" foes="0" cont="0"/>
    </junction>
    <junction id="-40094" type="priority" x="1201.94" y="584.45" incLanes="--40096_0 --40096_1" intLanes=":-40094_0_0" shape="1201.94,584.50 1202.03,577.90 1201.94,584.40">
        <request index="0" response="0" foes="0" cont="0"/>
    </junction>
    <junction id="-40105" type="priority" x="3.45" y="566.98" incLanes="-40096_0 -40096_1" intLanes=":-40105_0_0" shape="3.45,566.93 3.39,573.53 3.45,567.03">
        <request index="0" response="0" foes="0" cont="0"/>
    </junction>

    <junction id=":-39909_6_0" type="internal" x="566.64" y="1069.30" incLanes=":-39909_2_0 -39946_0 -39946_1" intLanes=":-39909_3_0 :-39909_3_1"/>
    <junction id=":-39909_7_0" type="internal" x="566.70" y="1066.30" incLanes=":-39909_5_0 --39911_0 --39911_1" intLanes=":-39909_0_0 :-39909_0_1"/>

    <connection from="--39911" to="--39946" fromLane="0" toLane="0" via=":-39909_0_0" dir="s" state="M"/>
    <connection from="--39911" to="--39946" fromLane="1" toLane="1" via=":-39909_0_1" dir="s" state="M"/>
    <connection from="--39911" to="-39911" fromLane="1" toLane="1" via=":-39909_2_0" dir="t" state="m"/>
    <connection from="--39928" to="-39928" fromLane="1" toLane="1" via=":-39926_0_0" dir="t" state="M"/>
    <connection from="--39946" to="-39946" fromLane="1" toLane="1" via=":-39945_0_0" dir="t" state="M"/>
    <connection from="--40056" to="-40056" fromLane="1" toLane="1" via=":-40054_0_0" dir="t" state="M"/>
    <connection from="--40096" to="-40096" fromLane="1" toLane="1" via=":-40094_0_0" dir="t" state="M"/>
    <connection from="-39911" to="--39911" fromLane="1" toLane="1" via=":-39923_0_0" dir="t" state="M"/>
    <connection from="-39928" to="--39928" fromLane="1" toLane="1" via=":-39947_0_0" dir="t" state="M"/>
    <connection from="-39946" to="-39911" fromLane="0" toLane="0" via=":-39909_3_0" dir="s" state="M"/>
    <connection from="-39946" to="-39911" fromLane="1" toLane="1" via=":-39909_3_1" dir="s" state="M"/>
    <connection from="-39946" to="--39946" fromLane="1" toLane="1" via=":-39909_5_0" dir="t" state="m"/>
    <connection from="-40056" to="--40056" fromLane="1" toLane="1" via=":-40091_0_0" dir="t" state="M"/>
    <connection from="-40096" to="--40096" fromLane="1" toLane="1" via=":-40105_0_0" dir="t" state="M"/>

    <connection from=":-39909_0" to="--39946" fromLane="0" toLane="0" dir="s" state="M"/>
    <connection from=":-39909_0" to="--39946" fromLane="1" toLane="1" dir="s" state="M"/>
    <connection from=":-39909_2" to="-39911" fromLane="0" toLane="1" via=":-39909_6_0" dir="t" state="m"/>
    <connection from=":-39909_6" to="-39911" fromLane="0" toLane="1" dir="t" state="M"/>
    <connection from=":-39909_3" to="-39911" fromLane="0" toLane="0" dir="s" state="M"/>
    <connection from=":-39909_3" to="-39911" fromLane="1" toLane="1" dir="s" state="M"/>
    <connection from=":-39909_5" to="--39946" fromLane="0" toLane="1" via=":-39909_7_0" dir="t" state="m"/>
    <connection from=":-39909_7" to="--39946" fromLane="0" toLane="1" dir="t" state="M"/>
    <connection from=":-39923_0" to="--39911" fromLane="0" toLane="1" dir="t" state="M"/>
    <connection from=":-39926_0" to="-39928" fromLane="0" toLane="1" dir="t" state="M"/>
    <connection from=":-39945_0" to="-39946" fromLane="0" toLane="1" dir="t" state="M"/>
    <connection from=":-39947_0" to="--39928" fromLane="0" toLane="1" dir="t" state="M"/>
    <connection from=":-40054_0" to="-40056" fromLane="0" toLane="1" dir="t" state="M"/>
    <connection from=":-40091_0" to="--40056" fromLane="0" toLane="1" dir="t" state="M"/>
    <connection from=":-40094_0" to="-40096" fromLane="0" toLane="1" dir="t" state="M"/>
    <connection from=":-40105_0" to="--40096" fromLane="0" toLane="1" dir="t" state="M"/>

</net>
