<routes>
<route id="e_s" edges="gneE1 -gneE0"/>
<route id="e_w" edges="gneE1 -gneE3"/>
<route id="e_n" edges="gneE1 -gneE2"/>
<route id="w_s" edges="gneE3 -gneE0"/>
<route id="w_e" edges="gneE3 -gneE1"/>
<route id="w_n" edges="gneE3 -gneE2"/>
<route id="s_e" edges="gneE0 -gneE1"/>
<route id="s_w" edges="gneE0 -gneE3"/>
<route id="s_n" edges="gneE0 -gneE2"/>
<route id="n_e" edges="gneE2 -gneE1"/>
<route id="n_w" edges="gneE2 -gneE3"/>
<route id="n_s" edges="gneE2 -gneE0"/>
<flow id="shixin_shanyin_1" route="e_s" begin="0" end="300" number="6" departlane="random"/>
<flow id="shixin_shanyin_2" route="e_w" begin="0" end="300" number="5" departlane="random"/>
<flow id="shixin_shanyin_3" route="e_n" begin="0" end="300" number="5" departlane="random"/>
<flow id="shixin_shanyin_4" route="w_n" begin="0" end="300" number="2" departlane="random"/>
<flow id="shixin_shanyin_5" route="w_e" begin="0" end="300" number="5" departlane="random"/>
<flow id="shixin_shanyin_6" route="w_s" begin="0" end="300" number="3" departlane="random"/>
<flow id="shixin_shanyin_7" route="s_w" begin="0" end="300" number="7" departlane="random"/>
<flow id="shixin_shanyin_8" route="s_n" begin="0" end="300" number="18" departlane="random"/>
<flow id="shixin_shanyin_9" route="s_e" begin="0" end="300" number="12" departlane="random"/>
<flow id="shixin_shanyin_10" route="n_e" begin="0" end="300" number="6" departlane="random"/>
<flow id="shixin_shanyin_11" route="n_s" begin="0" end="300" number="22" departlane="random"/>
<flow id="shixin_shanyin_12" route="n_w" begin="0" end="300" number="6" departlane="random"/>
<flow id="shixin_shanyin_13" route="e_s" begin="300" end="600" number="0" departlane="random"/>
<flow id="shixin_shanyin_14" route="e_w" begin="300" end="600" number="4" departlane="random"/>
<flow id="shixin_shanyin_15" route="e_n" begin="300" end="600" number="2" departlane="random"/>
<flow id="shixin_shanyin_16" route="w_n" begin="300" end="600" number="0" departlane="random"/>
<flow id="shixin_shanyin_17" route="w_e" begin="300" end="600" number="0" departlane="random"/>
<flow id="shixin_shanyin_18" route="w_s" begin="300" end="600" number="0" departlane="random"/>
<flow id="shixin_shanyin_19" route="s_w" begin="300" end="600" number="0" departlane="random"/>
<flow id="shixin_shanyin_20" route="s_n" begin="300" end="600" number="0" departlane="random"/>
<flow id="shixin_shanyin_21" route="s_e" begin="300" end="600" number="0" departlane="random"/>
<flow id="shixin_shanyin_22" route="n_e" begin="300" end="600" number="0" departlane="random"/>
<flow id="shixin_shanyin_23" route="n_s" begin="300" end="600" number="0" departlane="random"/>
<flow id="shixin_shanyin_24" route="n_w" begin="300" end="600" number="0" departlane="random"/>
<flow id="shixin_shanyin_25" route="e_s" begin="600" end="900" number="6" departlane="random"/>
<flow id="shixin_shanyin_26" route="e_w" begin="600" end="900" number="9" departlane="random"/>
<flow id="shixin_shanyin_27" route="e_n" begin="600" end="900" number="5" departlane="random"/>
<flow id="shixin_shanyin_28" route="w_n" begin="600" end="900" number="2" departlane="random"/>
<flow id="shixin_shanyin_29" route="w_e" begin="600" end="900" number="4" departlane="random"/>
<flow id="shixin_shanyin_30" route="w_s" begin="600" end="900" number="7" departlane="random"/>
<flow id="shixin_shanyin_31" route="s_w" begin="600" end="900" number="4" departlane="random"/>
<flow id="shixin_shanyin_32" route="s_n" begin="600" end="900" number="19" departlane="random"/>
<flow id="shixin_shanyin_33" route="s_e" begin="600" end="900" number="1" departlane="random"/>
<flow id="shixin_shanyin_34" route="n_e" begin="600" end="900" number="8" departlane="random"/>
<flow id="shixin_shanyin_35" route="n_s" begin="600" end="900" number="26" departlane="random"/>
<flow id="shixin_shanyin_36" route="n_w" begin="600" end="900" number="2" departlane="random"/>
<flow id="shixin_shanyin_37" route="e_s" begin="900" end="1200" number="5" departlane="random"/>
<flow id="shixin_shanyin_38" route="e_w" begin="900" end="1200" number="7" departlane="random"/>
<flow id="shixin_shanyin_39" route="e_n" begin="900" end="1200" number="2" departlane="random"/>
<flow id="shixin_shanyin_40" route="w_n" begin="900" end="1200" number="1" departlane="random"/>
<flow id="shixin_shanyin_41" route="w_e" begin="900" end="1200" number="6" departlane="random"/>
<flow id="shixin_shanyin_42" route="w_s" begin="900" end="1200" number="3" departlane="random"/>
<flow id="shixin_shanyin_43" route="s_w" begin="900" end="1200" number="7" departlane="random"/>
<flow id="shixin_shanyin_44" route="s_n" begin="900" end="1200" number="30" departlane="random"/>
<flow id="shixin_shanyin_45" route="s_e" begin="900" end="1200" number="3" departlane="random"/>
<flow id="shixin_shanyin_46" route="n_e" begin="900" end="1200" number="9" departlane="random"/>
<flow id="shixin_shanyin_47" route="n_s" begin="900" end="1200" number="42" departlane="random"/>
<flow id="shixin_shanyin_48" route="n_w" begin="900" end="1200" number="11" departlane="random"/>
<flow id="shixin_shanyin_49" route="e_s" begin="1200" end="1500" number="3" departlane="random"/>
<flow id="shixin_shanyin_50" route="e_w" begin="1200" end="1500" number="5" departlane="random"/>
<flow id="shixin_shanyin_51" route="e_n" begin="1200" end="1500" number="5" departlane="random"/>
<flow id="shixin_shanyin_52" route="w_n" begin="1200" end="1500" number="2" departlane="random"/>
<flow id="shixin_shanyin_53" route="w_e" begin="1200" end="1500" number="9" departlane="random"/>
<flow id="shixin_shanyin_54" route="w_s" begin="1200" end="1500" number="6" departlane="random"/>
<flow id="shixin_shanyin_55" route="s_w" begin="1200" end="1500" number="9" departlane="random"/>
<flow id="shixin_shanyin_56" route="s_n" begin="1200" end="1500" number="28" departlane="random"/>
<flow id="shixin_shanyin_57" route="s_e" begin="1200" end="1500" number="4" departlane="random"/>
<flow id="shixin_shanyin_58" route="n_e" begin="1200" end="1500" number="16" departlane="random"/>
<flow id="shixin_shanyin_59" route="n_s" begin="1200" end="1500" number="25" departlane="random"/>
<flow id="shixin_shanyin_60" route="n_w" begin="1200" end="1500" number="5" departlane="random"/>
<flow id="shixin_shanyin_61" route="e_s" begin="1500" end="1800" number="3" departlane="random"/>
<flow id="shixin_shanyin_62" route="e_w" begin="1500" end="1800" number="2" departlane="random"/>
<flow id="shixin_shanyin_63" route="e_n" begin="1500" end="1800" number="5" departlane="random"/>
<flow id="shixin_shanyin_64" route="w_n" begin="1500" end="1800" number="1" departlane="random"/>
<flow id="shixin_shanyin_65" route="w_e" begin="1500" end="1800" number="7" departlane="random"/>
<flow id="shixin_shanyin_66" route="w_s" begin="1500" end="1800" number="4" departlane="random"/>
<flow id="shixin_shanyin_67" route="s_w" begin="1500" end="1800" number="10" departlane="random"/>
<flow id="shixin_shanyin_68" route="s_n" begin="1500" end="1800" number="40" departlane="random"/>
<flow id="shixin_shanyin_69" route="s_e" begin="1500" end="1800" number="1" departlane="random"/>
<flow id="shixin_shanyin_70" route="n_e" begin="1500" end="1800" number="11" departlane="random"/>
<flow id="shixin_shanyin_71" route="n_s" begin="1500" end="1800" number="27" departlane="random"/>
<flow id="shixin_shanyin_72" route="n_w" begin="1500" end="1800" number="3" departlane="random"/>
<flow id="shixin_shanyin_73" route="e_s" begin="1800" end="2100" number="1" departlane="random"/>
<flow id="shixin_shanyin_74" route="e_w" begin="1800" end="2100" number="5" departlane="random"/>
<flow id="shixin_shanyin_75" route="e_n" begin="1800" end="2100" number="3" departlane="random"/>
<flow id="shixin_shanyin_76" route="w_n" begin="1800" end="2100" number="2" departlane="random"/>
<flow id="shixin_shanyin_77" route="w_e" begin="1800" end="2100" number="6" departlane="random"/>
<flow id="shixin_shanyin_78" route="w_s" begin="1800" end="2100" number="2" departlane="random"/>
<flow id="shixin_shanyin_79" route="s_w" begin="1800" end="2100" number="9" departlane="random"/>
<flow id="shixin_shanyin_80" route="s_n" begin="1800" end="2100" number="17" departlane="random"/>
<flow id="shixin_shanyin_81" route="s_e" begin="1800" end="2100" number="5" departlane="random"/>
<flow id="shixin_shanyin_82" route="n_e" begin="1800" end="2100" number="9" departlane="random"/>
<flow id="shixin_shanyin_83" route="n_s" begin="1800" end="2100" number="23" departlane="random"/>
<flow id="shixin_shanyin_84" route="n_w" begin="1800" end="2100" number="6" departlane="random"/>
<flow id="shixin_shanyin_85" route="e_s" begin="2100" end="2400" number="4" departlane="random"/>
<flow id="shixin_shanyin_86" route="e_w" begin="2100" end="2400" number="2" departlane="random"/>
<flow id="shixin_shanyin_87" route="e_n" begin="2100" end="2400" number="4" departlane="random"/>
<flow id="shixin_shanyin_88" route="w_n" begin="2100" end="2400" number="2" departlane="random"/>
<flow id="shixin_shanyin_89" route="w_e" begin="2100" end="2400" number="6" departlane="random"/>
<flow id="shixin_shanyin_90" route="w_s" begin="2100" end="2400" number="5" departlane="random"/>
<flow id="shixin_shanyin_91" route="s_w" begin="2100" end="2400" number="9" departlane="random"/>
<flow id="shixin_shanyin_92" route="s_n" begin="2100" end="2400" number="22" departlane="random"/>
<flow id="shixin_shanyin_93" route="s_e" begin="2100" end="2400" number="2" departlane="random"/>
<flow id="shixin_shanyin_94" route="n_e" begin="2100" end="2400" number="12" departlane="random"/>
<flow id="shixin_shanyin_95" route="n_s" begin="2100" end="2400" number="23" departlane="random"/>
<flow id="shixin_shanyin_96" route="n_w" begin="2100" end="2400" number="4" departlane="random"/>
<flow id="shixin_shanyin_97" route="e_s" begin="2400" end="2700" number="2" departlane="random"/>
<flow id="shixin_shanyin_98" route="e_w" begin="2400" end="2700" number="1" departlane="random"/>
<flow id="shixin_shanyin_99" route="e_n" begin="2400" end="2700" number="1" departlane="random"/>
<flow id="shixin_shanyin_100" route="w_n" begin="2400" end="2700" number="3" departlane="random"/>
<flow id="shixin_shanyin_101" route="w_e" begin="2400" end="2700" number="7" departlane="random"/>
<flow id="shixin_shanyin_102" route="w_s" begin="2400" end="2700" number="7" departlane="random"/>
<flow id="shixin_shanyin_103" route="s_w" begin="2400" end="2700" number="9" departlane="random"/>
<flow id="shixin_shanyin_104" route="s_n" begin="2400" end="2700" number="19" departlane="random"/>
<flow id="shixin_shanyin_105" route="s_e" begin="2400" end="2700" number="5" departlane="random"/>
<flow id="shixin_shanyin_106" route="n_e" begin="2400" end="2700" number="11" departlane="random"/>
<flow id="shixin_shanyin_107" route="n_s" begin="2400" end="2700" number="22" departlane="random"/>
<flow id="shixin_shanyin_108" route="n_w" begin="2400" end="2700" number="4" departlane="random"/>
<flow id="shixin_shanyin_109" route="e_s" begin="2700" end="3000" number="1" departlane="random"/>
<flow id="shixin_shanyin_110" route="e_w" begin="2700" end="3000" number="3" departlane="random"/>
<flow id="shixin_shanyin_111" route="e_n" begin="2700" end="3000" number="3" departlane="random"/>
<flow id="shixin_shanyin_112" route="w_n" begin="2700" end="3000" number="2" departlane="random"/>
<flow id="shixin_shanyin_113" route="w_e" begin="2700" end="3000" number="5" departlane="random"/>
<flow id="shixin_shanyin_114" route="w_s" begin="2700" end="3000" number="2" departlane="random"/>
<flow id="shixin_shanyin_115" route="s_w" begin="2700" end="3000" number="7" departlane="random"/>
<flow id="shixin_shanyin_116" route="s_n" begin="2700" end="3000" number="18" departlane="random"/>
<flow id="shixin_shanyin_117" route="s_e" begin="2700" end="3000" number="2" departlane="random"/>
<flow id="shixin_shanyin_118" route="n_e" begin="2700" end="3000" number="10" departlane="random"/>
<flow id="shixin_shanyin_119" route="n_s" begin="2700" end="3000" number="44" departlane="random"/>
<flow id="shixin_shanyin_120" route="n_w" begin="2700" end="3000" number="5" departlane="random"/>
<flow id="shixin_shanyin_121" route="e_s" begin="3000" end="3300" number="0" departlane="random"/>
<flow id="shixin_shanyin_122" route="e_w" begin="3000" end="3300" number="2" departlane="random"/>
<flow id="shixin_shanyin_123" route="e_n" begin="3000" end="3300" number="6" departlane="random"/>
<flow id="shixin_shanyin_124" route="w_n" begin="3000" end="3300" number="0" departlane="random"/>
<flow id="shixin_shanyin_125" route="w_e" begin="3000" end="3300" number="8" departlane="random"/>
<flow id="shixin_shanyin_126" route="w_s" begin="3000" end="3300" number="2" departlane="random"/>
<flow id="shixin_shanyin_127" route="s_w" begin="3000" end="3300" number="2" departlane="random"/>
<flow id="shixin_shanyin_128" route="s_n" begin="3000" end="3300" number="17" departlane="random"/>
<flow id="shixin_shanyin_129" route="s_e" begin="3000" end="3300" number="1" departlane="random"/>
<flow id="shixin_shanyin_130" route="n_e" begin="3000" end="3300" number="7" departlane="random"/>
<flow id="shixin_shanyin_131" route="n_s" begin="3000" end="3300" number="19" departlane="random"/>
<flow id="shixin_shanyin_132" route="n_w" begin="3000" end="3300" number="3" departlane="random"/>
<flow id="shixin_shanyin_133" route="e_s" begin="3300" end="3600" number="1" departlane="random"/>
<flow id="shixin_shanyin_134" route="e_w" begin="3300" end="3600" number="4" departlane="random"/>
<flow id="shixin_shanyin_135" route="e_n" begin="3300" end="3600" number="6" departlane="random"/>
<flow id="shixin_shanyin_136" route="w_n" begin="3300" end="3600" number="1" departlane="random"/>
<flow id="shixin_shanyin_137" route="w_e" begin="3300" end="3600" number="2" departlane="random"/>
<flow id="shixin_shanyin_138" route="w_s" begin="3300" end="3600" number="3" departlane="random"/>
<flow id="shixin_shanyin_139" route="s_w" begin="3300" end="3600" number="11" departlane="random"/>
<flow id="shixin_shanyin_140" route="s_n" begin="3300" end="3600" number="23" departlane="random"/>
<flow id="shixin_shanyin_141" route="s_e" begin="3300" end="3600" number="0" departlane="random"/>
<flow id="shixin_shanyin_142" route="n_e" begin="3300" end="3600" number="12" departlane="random"/>
<flow id="shixin_shanyin_143" route="n_s" begin="3300" end="3600" number="29" departlane="random"/>
<flow id="shixin_shanyin_144" route="n_w" begin="3300" end="3600" number="4" departlane="random"/>
<flow id="shixin_shanyin_145" route="e_s" begin="3600" end="3900" number="7" departlane="random"/>
<flow id="shixin_shanyin_146" route="e_w" begin="3600" end="3900" number="6" departlane="random"/>
<flow id="shixin_shanyin_147" route="e_n" begin="3600" end="3900" number="5" departlane="random"/>
<flow id="shixin_shanyin_148" route="w_n" begin="3600" end="3900" number="3" departlane="random"/>
<flow id="shixin_shanyin_149" route="w_e" begin="3600" end="3900" number="7" departlane="random"/>
<flow id="shixin_shanyin_150" route="w_s" begin="3600" end="3900" number="4" departlane="random"/>
<flow id="shixin_shanyin_151" route="s_w" begin="3600" end="3900" number="8" departlane="random"/>
<flow id="shixin_shanyin_152" route="s_n" begin="3600" end="3900" number="18" departlane="random"/>
<flow id="shixin_shanyin_153" route="s_e" begin="3600" end="3900" number="1" departlane="random"/>
<flow id="shixin_shanyin_154" route="n_e" begin="3600" end="3900" number="11" departlane="random"/>
<flow id="shixin_shanyin_155" route="n_s" begin="3600" end="3900" number="22" departlane="random"/>
<flow id="shixin_shanyin_156" route="n_w" begin="3600" end="3900" number="6" departlane="random"/>
<flow id="shixin_shanyin_157" route="e_s" begin="3900" end="4200" number="1" departlane="random"/>
<flow id="shixin_shanyin_158" route="e_w" begin="3900" end="4200" number="4" departlane="random"/>
<flow id="shixin_shanyin_159" route="e_n" begin="3900" end="4200" number="9" departlane="random"/>
<flow id="shixin_shanyin_160" route="w_n" begin="3900" end="4200" number="1" departlane="random"/>
<flow id="shixin_shanyin_161" route="w_e" begin="3900" end="4200" number="2" departlane="random"/>
<flow id="shixin_shanyin_162" route="w_s" begin="3900" end="4200" number="7" departlane="random"/>
<flow id="shixin_shanyin_163" route="s_w" begin="3900" end="4200" number="5" departlane="random"/>
<flow id="shixin_shanyin_164" route="s_n" begin="3900" end="4200" number="27" departlane="random"/>
<flow id="shixin_shanyin_165" route="s_e" begin="3900" end="4200" number="4" departlane="random"/>
<flow id="shixin_shanyin_166" route="n_e" begin="3900" end="4200" number="11" departlane="random"/>
<flow id="shixin_shanyin_167" route="n_s" begin="3900" end="4200" number="33" departlane="random"/>
<flow id="shixin_shanyin_168" route="n_w" begin="3900" end="4200" number="10" departlane="random"/>
<flow id="shixin_shanyin_169" route="e_s" begin="4200" end="4500" number="4" departlane="random"/>
<flow id="shixin_shanyin_170" route="e_w" begin="4200" end="4500" number="9" departlane="random"/>
<flow id="shixin_shanyin_171" route="e_n" begin="4200" end="4500" number="2" departlane="random"/>
<flow id="shixin_shanyin_172" route="w_n" begin="4200" end="4500" number="2" departlane="random"/>
<flow id="shixin_shanyin_173" route="w_e" begin="4200" end="4500" number="4" departlane="random"/>
<flow id="shixin_shanyin_174" route="w_s" begin="4200" end="4500" number="5" departlane="random"/>
<flow id="shixin_shanyin_175" route="s_w" begin="4200" end="4500" number="15" departlane="random"/>
<flow id="shixin_shanyin_176" route="s_n" begin="4200" end="4500" number="24" departlane="random"/>
<flow id="shixin_shanyin_177" route="s_e" begin="4200" end="4500" number="2" departlane="random"/>
<flow id="shixin_shanyin_178" route="n_e" begin="4200" end="4500" number="7" departlane="random"/>
<flow id="shixin_shanyin_179" route="n_s" begin="4200" end="4500" number="24" departlane="random"/>
<flow id="shixin_shanyin_180" route="n_w" begin="4200" end="4500" number="3" departlane="random"/>
<flow id="shixin_shanyin_181" route="e_s" begin="4500" end="4800" number="3" departlane="random"/>
<flow id="shixin_shanyin_182" route="e_w" begin="4500" end="4800" number="7" departlane="random"/>
<flow id="shixin_shanyin_183" route="e_n" begin="4500" end="4800" number="2" departlane="random"/>
<flow id="shixin_shanyin_184" route="w_n" begin="4500" end="4800" number="1" departlane="random"/>
<flow id="shixin_shanyin_185" route="w_e" begin="4500" end="4800" number="8" departlane="random"/>
<flow id="shixin_shanyin_186" route="w_s" begin="4500" end="4800" number="3" departlane="random"/>
<flow id="shixin_shanyin_187" route="s_w" begin="4500" end="4800" number="6" departlane="random"/>
<flow id="shixin_shanyin_188" route="s_n" begin="4500" end="4800" number="26" departlane="random"/>
<flow id="shixin_shanyin_189" route="s_e" begin="4500" end="4800" number="0" departlane="random"/>
<flow id="shixin_shanyin_190" route="n_e" begin="4500" end="4800" number="9" departlane="random"/>
<flow id="shixin_shanyin_191" route="n_s" begin="4500" end="4800" number="29" departlane="random"/>
<flow id="shixin_shanyin_192" route="n_w" begin="4500" end="4800" number="8" departlane="random"/>
<flow id="shixin_shanyin_193" route="e_s" begin="4800" end="5100" number="2" departlane="random"/>
<flow id="shixin_shanyin_194" route="e_w" begin="4800" end="5100" number="2" departlane="random"/>
<flow id="shixin_shanyin_195" route="e_n" begin="4800" end="5100" number="1" departlane="random"/>
<flow id="shixin_shanyin_196" route="w_n" begin="4800" end="5100" number="3" departlane="random"/>
<flow id="shixin_shanyin_197" route="w_e" begin="4800" end="5100" number="3" departlane="random"/>
<flow id="shixin_shanyin_198" route="w_s" begin="4800" end="5100" number="6" departlane="random"/>
<flow id="shixin_shanyin_199" route="s_w" begin="4800" end="5100" number="8" departlane="random"/>
<flow id="shixin_shanyin_200" route="s_n" begin="4800" end="5100" number="11" departlane="random"/>
<flow id="shixin_shanyin_201" route="s_e" begin="4800" end="5100" number="4" departlane="random"/>
<flow id="shixin_shanyin_202" route="n_e" begin="4800" end="5100" number="5" departlane="random"/>
<flow id="shixin_shanyin_203" route="n_s" begin="4800" end="5100" number="25" departlane="random"/>
<flow id="shixin_shanyin_204" route="n_w" begin="4800" end="5100" number="9" departlane="random"/>
<flow id="shixin_shanyin_205" route="e_s" begin="5100" end="5400" number="1" departlane="random"/>
<flow id="shixin_shanyin_206" route="e_w" begin="5100" end="5400" number="5" departlane="random"/>
<flow id="shixin_shanyin_207" route="e_n" begin="5100" end="5400" number="3" departlane="random"/>
<flow id="shixin_shanyin_208" route="w_n" begin="5100" end="5400" number="1" departlane="random"/>
<flow id="shixin_shanyin_209" route="w_e" begin="5100" end="5400" number="3" departlane="random"/>
<flow id="shixin_shanyin_210" route="w_s" begin="5100" end="5400" number="3" departlane="random"/>
<flow id="shixin_shanyin_211" route="s_w" begin="5100" end="5400" number="8" departlane="random"/>
<flow id="shixin_shanyin_212" route="s_n" begin="5100" end="5400" number="26" departlane="random"/>
<flow id="shixin_shanyin_213" route="s_e" begin="5100" end="5400" number="3" departlane="random"/>
<flow id="shixin_shanyin_214" route="n_e" begin="5100" end="5400" number="8" departlane="random"/>
<flow id="shixin_shanyin_215" route="n_s" begin="5100" end="5400" number="17" departlane="random"/>
<flow id="shixin_shanyin_216" route="n_w" begin="5100" end="5400" number="4" departlane="random"/>
<flow id="shixin_shanyin_217" route="e_s" begin="5400" end="5700" number="0" departlane="random"/>
<flow id="shixin_shanyin_218" route="e_w" begin="5400" end="5700" number="0" departlane="random"/>
<flow id="shixin_shanyin_219" route="e_n" begin="5400" end="5700" number="2" departlane="random"/>
<flow id="shixin_shanyin_220" route="w_n" begin="5400" end="5700" number="0" departlane="random"/>
<flow id="shixin_shanyin_221" route="w_e" begin="5400" end="5700" number="7" departlane="random"/>
<flow id="shixin_shanyin_222" route="w_s" begin="5400" end="5700" number="5" departlane="random"/>
<flow id="shixin_shanyin_223" route="s_w" begin="5400" end="5700" number="9" departlane="random"/>
<flow id="shixin_shanyin_224" route="s_n" begin="5400" end="5700" number="18" departlane="random"/>
<flow id="shixin_shanyin_225" route="s_e" begin="5400" end="5700" number="0" departlane="random"/>
<flow id="shixin_shanyin_226" route="n_e" begin="5400" end="5700" number="7" departlane="random"/>
<flow id="shixin_shanyin_227" route="n_s" begin="5400" end="5700" number="15" departlane="random"/>
<flow id="shixin_shanyin_228" route="n_w" begin="5400" end="5700" number="7" departlane="random"/>
<flow id="shixin_shanyin_229" route="e_s" begin="5700" end="6000" number="1" departlane="random"/>
<flow id="shixin_shanyin_230" route="e_w" begin="5700" end="6000" number="4" departlane="random"/>
<flow id="shixin_shanyin_231" route="e_n" begin="5700" end="6000" number="3" departlane="random"/>
<flow id="shixin_shanyin_232" route="w_n" begin="5700" end="6000" number="0" departlane="random"/>
<flow id="shixin_shanyin_233" route="w_e" begin="5700" end="6000" number="1" departlane="random"/>
<flow id="shixin_shanyin_234" route="w_s" begin="5700" end="6000" number="2" departlane="random"/>
<flow id="shixin_shanyin_235" route="s_w" begin="5700" end="6000" number="6" departlane="random"/>
<flow id="shixin_shanyin_236" route="s_n" begin="5700" end="6000" number="17" departlane="random"/>
<flow id="shixin_shanyin_237" route="s_e" begin="5700" end="6000" number="4" departlane="random"/>
<flow id="shixin_shanyin_238" route="n_e" begin="5700" end="6000" number="11" departlane="random"/>
<flow id="shixin_shanyin_239" route="n_s" begin="5700" end="6000" number="20" departlane="random"/>
<flow id="shixin_shanyin_240" route="n_w" begin="5700" end="6000" number="3" departlane="random"/>
<flow id="shixin_shanyin_241" route="e_s" begin="6000" end="6300" number="4" departlane="random"/>
<flow id="shixin_shanyin_242" route="e_w" begin="6000" end="6300" number="6" departlane="random"/>
<flow id="shixin_shanyin_243" route="e_n" begin="6000" end="6300" number="1" departlane="random"/>
<flow id="shixin_shanyin_244" route="w_n" begin="6000" end="6300" number="0" departlane="random"/>
<flow id="shixin_shanyin_245" route="w_e" begin="6000" end="6300" number="2" departlane="random"/>
<flow id="shixin_shanyin_246" route="w_s" begin="6000" end="6300" number="4" departlane="random"/>
<flow id="shixin_shanyin_247" route="s_w" begin="6000" end="6300" number="6" departlane="random"/>
<flow id="shixin_shanyin_248" route="s_n" begin="6000" end="6300" number="13" departlane="random"/>
<flow id="shixin_shanyin_249" route="s_e" begin="6000" end="6300" number="6" departlane="random"/>
<flow id="shixin_shanyin_250" route="n_e" begin="6000" end="6300" number="7" departlane="random"/>
<flow id="shixin_shanyin_251" route="n_s" begin="6000" end="6300" number="16" departlane="random"/>
<flow id="shixin_shanyin_252" route="n_w" begin="6000" end="6300" number="5" departlane="random"/>
<flow id="shixin_shanyin_253" route="e_s" begin="6300" end="6600" number="2" departlane="random"/>
<flow id="shixin_shanyin_254" route="e_w" begin="6300" end="6600" number="3" departlane="random"/>
<flow id="shixin_shanyin_255" route="e_n" begin="6300" end="6600" number="3" departlane="random"/>
<flow id="shixin_shanyin_256" route="w_n" begin="6300" end="6600" number="4" departlane="random"/>
<flow id="shixin_shanyin_257" route="w_e" begin="6300" end="6600" number="1" departlane="random"/>
<flow id="shixin_shanyin_258" route="w_s" begin="6300" end="6600" number="0" departlane="random"/>
<flow id="shixin_shanyin_259" route="s_w" begin="6300" end="6600" number="7" departlane="random"/>
<flow id="shixin_shanyin_260" route="s_n" begin="6300" end="6600" number="19" departlane="random"/>
<flow id="shixin_shanyin_261" route="s_e" begin="6300" end="6600" number="1" departlane="random"/>
<flow id="shixin_shanyin_262" route="n_e" begin="6300" end="6600" number="15" departlane="random"/>
<flow id="shixin_shanyin_263" route="n_s" begin="6300" end="6600" number="18" departlane="random"/>
<flow id="shixin_shanyin_264" route="n_w" begin="6300" end="6600" number="7" departlane="random"/>
<flow id="shixin_shanyin_265" route="e_s" begin="6600" end="6900" number="2" departlane="random"/>
<flow id="shixin_shanyin_266" route="e_w" begin="6600" end="6900" number="1" departlane="random"/>
<flow id="shixin_shanyin_267" route="e_n" begin="6600" end="6900" number="1" departlane="random"/>
<flow id="shixin_shanyin_268" route="w_n" begin="6600" end="6900" number="1" departlane="random"/>
<flow id="shixin_shanyin_269" route="w_e" begin="6600" end="6900" number="2" departlane="random"/>
<flow id="shixin_shanyin_270" route="w_s" begin="6600" end="6900" number="4" departlane="random"/>
<flow id="shixin_shanyin_271" route="s_w" begin="6600" end="6900" number="2" departlane="random"/>
<flow id="shixin_shanyin_272" route="s_n" begin="6600" end="6900" number="16" departlane="random"/>
<flow id="shixin_shanyin_273" route="s_e" begin="6600" end="6900" number="3" departlane="random"/>
<flow id="shixin_shanyin_274" route="n_e" begin="6600" end="6900" number="3" departlane="random"/>
<flow id="shixin_shanyin_275" route="n_s" begin="6600" end="6900" number="17" departlane="random"/>
<flow id="shixin_shanyin_276" route="n_w" begin="6600" end="6900" number="8" departlane="random"/>
<flow id="shixin_shanyin_277" route="e_s" begin="6900" end="7200" number="0" departlane="random"/>
<flow id="shixin_shanyin_278" route="e_w" begin="6900" end="7200" number="3" departlane="random"/>
<flow id="shixin_shanyin_279" route="e_n" begin="6900" end="7200" number="1" departlane="random"/>
<flow id="shixin_shanyin_280" route="w_n" begin="6900" end="7200" number="1" departlane="random"/>
<flow id="shixin_shanyin_281" route="w_e" begin="6900" end="7200" number="3" departlane="random"/>
<flow id="shixin_shanyin_282" route="w_s" begin="6900" end="7200" number="2" departlane="random"/>
<flow id="shixin_shanyin_283" route="s_w" begin="6900" end="7200" number="4" departlane="random"/>
<flow id="shixin_shanyin_284" route="s_n" begin="6900" end="7200" number="18" departlane="random"/>
<flow id="shixin_shanyin_285" route="s_e" begin="6900" end="7200" number="1" departlane="random"/>
<flow id="shixin_shanyin_286" route="n_e" begin="6900" end="7200" number="11" departlane="random"/>
<flow id="shixin_shanyin_287" route="n_s" begin="6900" end="7200" number="14" departlane="random"/>
<flow id="shixin_shanyin_288" route="n_w" begin="6900" end="7200" number="4" departlane="random"/>
<flow id="shixin_shanyin_289" route="e_s" begin="7200" end="7500" number="2" departlane="random"/>
<flow id="shixin_shanyin_290" route="e_w" begin="7200" end="7500" number="0" departlane="random"/>
<flow id="shixin_shanyin_291" route="e_n" begin="7200" end="7500" number="2" departlane="random"/>
<flow id="shixin_shanyin_292" route="w_n" begin="7200" end="7500" number="2" departlane="random"/>
<flow id="shixin_shanyin_293" route="w_e" begin="7200" end="7500" number="2" departlane="random"/>
<flow id="shixin_shanyin_294" route="w_s" begin="7200" end="7500" number="5" departlane="random"/>
<flow id="shixin_shanyin_295" route="s_w" begin="7200" end="7500" number="2" departlane="random"/>
<flow id="shixin_shanyin_296" route="s_n" begin="7200" end="7500" number="7" departlane="random"/>