<configuration>
    <input>
      <net-file value="forth.net.xml"/>
      <route-files value="shixin_shanyin_high.rou.xml"/>
      
    </input>
</configuration>

